!!>>>>>>>>>>>>>>>>>>>>>>>>>>>>>>>>>>>>>>>>>>>>>>>>>>>>>>>>>>>>>>>>>>>>>>
!! NEMO/OCE :   Reference namelist_ref                                !!
!!>>>>>>>>>>>>>>>>>>>>>>>>>>>>>>>>>>>>>>>>>>>>>>>>>>>>>>>>>>>>>>>>>>>>>>
!! NEMO/OCE  :  1 - Domain & run manager (namrun, namcfg, namdom, namtsd, namcrs, namc1d, namc1d_uvd)
!! namelists    2 - Surface boundary (namsbc, namsbc_flx, namsbc_blk, namsbc_cpl,
!!                                    namsbc_sas, namtra_qsr, namsbc_rnf,
!!                                    namsbc_isf, namsbc_iscpl, namsbc_apr, 
!!                                    namsbc_ssr, namsbc_wave, namberg)
!!              3 - lateral boundary (namlbc, namagrif, nambdy, nambdy_tide)
!!              4 - top/bot boundary (namdrg, namdrg_top, namdrg_bot, nambbc, nambbl)
!!              5 - Tracer           (nameos, namtra_adv, namtra_ldf, namtra_eiv, namtra_dmp)
!!              6 - dynamics         (namdyn_adv, namdyn_vor, namdyn_hpg, namdyn_spg, namdyn_ldf)
!!              7 - Vertical physics (namzdf, namzdf_ric, namzdf_tke, namzdf_gls, namzdf_iwm)
!!              8 - diagnostics      (namnc4, namtrd, namspr, namflo, namhsb)
!!              9 - Obs & Assim      (namobs, nam_asminc)
!!             10 - miscellaneous    (nammpp, namctl, namsto)
!!>>>>>>>>>>>>>>>>>>>>>>>>>>>>>>>>>>>>>>>>>>>>>>>>>>>>>>>>>>>>>>>>>>>>>>

!!======================================================================
!!              ***  Domain & Run management namelists  ***           !!
!!                                                                    !!
!!   namrun       parameters of the run
!!   namdom       space and time domain
!!   namcfg       parameters of the configuration                       (default: user defined GYRE)
!!   namwad       Wetting and drying                                    (default: OFF)
!!   namtsd       data: temperature & salinity                          (default: OFF)
!!   namcrs       coarsened grid (for outputs and/or TOP)               (ln_crs =T)
!!   namc1d       1D configuration options                              ("key_c1d")
!!   namc1d_dyndmp 1D newtonian damping applied on currents             ("key_c1d")
!!   namc1d_uvd   1D data (currents)                                    ("key_c1d")
!!======================================================================
!
!-----------------------------------------------------------------------
&namrun        !   parameters of the run
!-----------------------------------------------------------------------
   nn_no         =   <NN_NO>         !  job number
   cn_exp        =   SEDNA-DELTA     !  experience name 
   nn_it000      =    <NIT000>       !  first time step
   nn_itend      =    <NITEND>       !  last  time step
   nn_date0      =  20090101         !  initial calendar date yymmdd (used if nrstdt=1)
   nn_time0    =       0             !  initial time of day in hhmm
   nn_leapy    =       0             !  Leap year calendar (1) or not (0)
   ln_rstart   = <RESTART>           !  start from rest (F) or from a restart file (T)
      nn_euler    =       1   !  = 0 : start with forward time step if ln_rstart=T
      nn_rstctl   =       2   !  restart control => activated only if ln_rstart = T
                              !    = 0 nn_date0 read in namelist ; nn_it000 : read in namelist
                              !    = 1 nn_date0 read in namelist ; nn_it000 : check consistancy between namelist and restart
                              !    = 2 nn_date0 read in restart  ; nn_it000 : check consistancy between namelist and restart
      cn_ocerst_in  = "<OCERST_IN>" !  suffix of ocean restart name (input)
      cn_ocerst_indir = "<CN_IN_OCERST>"       !  directory from which to read input ocean restarts
      cn_ocerst_out = "<OCERST_OUT>" !  suffix of ocean restart name (output)
      cn_ocerst_outdir = "<CN_OUT_OCERST>"      !  directory in which to write output ocean restarts
   ln_iscpl    = .false.   !  cavity evolution forcing or coupling to ice sheet model
   nn_istate   =       0   !  output the initial state (1) or not (0)
   ln_rst_list = .false.   !  output restarts at list of times using nn_stocklist (T) or at set frequency with nn_stock (F)
   nn_stock    =       0   !  used only if ln_rst_list = F: output restart freqeuncy (modulo referenced to 1)
      !                          !    =  0 force to write restart files only at the end of the run
      !                          !    = -1 do not do any restart
   nn_stocklist = NITRST1,NITRST2,0,0,0,0,0,0,0,0 ! List of timesteps when a restart file is to be written
   nn_write    =       0   !  used only if key_iomput is not defined: output frequency (modulo referenced to nn_it000)
      !                          !    =  0 force to write output files only at the end of the run
      !                          !    = -1 do not do any output file
   ln_mskland  = .false.   !  mask land points in NetCDF outputs
   ln_cfmeta   = .false.   !  output additional data to netCDF files required for compliance with the CF metadata standard
   ln_clobber  = .true.    !  clobber (overwrite) an existing file
   nn_chunksz  =       0   !  chunksize (bytes) for NetCDF file (works only with iom_nf90 routines)
   ln_xios_read = .FALSE.  !  use XIOS to read restart file (only for a single file restart)
   nn_wxios = 0      !  use XIOS to write restart file 0 - no, 1 - single file output, 2 - multiple file output
/
!-----------------------------------------------------------------------
&namdom        !   time and space domain
!-----------------------------------------------------------------------
   ln_linssh   = .true.    !  =T  linear free surface  ==>>  model level are fixed in time
   rn_isfhmin  =    1.00   !  treshold [m] to discriminate grounding ice from floating ice
   !
   rn_rdt      =    40.    !  time step for the dynamics and tracer
   rn_atfp     =    0.1    !  asselin time filter parameter
   !
   ln_crs      = .false.   !  Logical switch for coarsening module      (T => fill namcrs)
   !
   ln_meshmask = .false.    !  =T create a mesh file
/
!-----------------------------------------------------------------------
&namcfg        !   parameters of the configuration                      (default: use namusr_def in namelist_cfg)
!-----------------------------------------------------------------------
   ln_read_cfg = .true.    !  (=T) read the domain configuration file
      !                    !  (=F) user defined configuration           (F => create/check namusr_def)
      cn_domcfg = "SEDNA_Domain_cfg_Tgt_20210820_tsh10m_L1"  ! domain configuration filename
      !
      ln_closea    = .false.    !  T => keep closed seas (defined by closea_mask field) in the  
      !                         !       domain and apply special treatment of freshwater fluxes.
      !                         !  F => suppress closed seas (defined by closea_mask field) 
      !                         !       from the bathymetry at runtime.
      !                         !  If closea_mask field doesn't exist in the domain_cfg file
      !                         !       then this logical does nothing.
   ln_write_cfg = .false.   !  (=T) create the domain configuration file
      cn_domcfg_out = "domain_cfg_out" ! newly created domain configuration filename
      !
   ln_use_jattr = .false.  !  use (T) the file attribute: open_ocean_jstart, if present
   !                       !  in netcdf input files, as the start j-row for reading
/
!-----------------------------------------------------------------------
&namtsd        !    Temperature & Salinity Data  (init/dmp)             (default: OFF)
!-----------------------------------------------------------------------
   !                       ! =T  read T-S fields for:
   ln_tsd_init = .true.         !  ocean initialisation
   ln_tsd_dmp  = .true.         !  T-S restoring   (see namtra_dmp)
   
   cn_dir      = './'      !  root directory for the T-S data location
   !___________!_________________________!___________________!___________!_____________!________!___________!__________________!__________!_______________!
   !           !  file name              ! frequency (hours) ! variable  ! time interp.!  clim  ! 'yearly'/ ! weights filename ! rotation ! land/sea mask !
   !           !                         !  (if <0  months)  !   name    !   (logical) !  (T/F) ! 'monthly' !                  ! pairing  !    filename   !
   sn_tem_ini = 'woa09_temperature_monthly_1deg_t_an_CMA_drowned' ,  -12      , 't_an',   .true.    , .true. , 'yearly'  ,    'reshape_WOA09_GLO1x1toSEDNA_bilin_20210824.nc'            ,    ''    ,    ''
   sn_sal_ini = 'woa09_salinity_monthly_1deg_s_an_CMA_drowned'    ,  -12      , 's_an',   .true.    , .true. , 'yearly'  ,    'reshape_WOA09_GLO1x1toSEDNA_bilin_20210824.nc'            ,    ''    ,    ''
   sn_tem_dmp = 'woa09_temperature_monthly_1deg_t_an_CMA_drowned' ,  -12      , 't_an',   .true.    , .true. , 'yearly'  ,    'reshape_WOA09_GLO1x1toSEDNA_bilin_20210824.nc'            ,    ''    ,    ''
   sn_sal_dmp = 'woa09_salinity_monthly_1deg_s_an_CMA_drowned'    ,  -12      , 's_an',   .true.    , .true. , 'yearly'  ,    'reshape_WOA09_GLO1x1toSEDNA_bilin_20210824.nc'            ,    ''    ,    ''
/
!!======================================================================
!!            ***  Surface Boundary Condition namelists  ***          !!
!!                                                                    !!
!!   namsbc          surface boundary condition manager                 (default: NO selection)
!!   namsbc_flx      flux               formulation                     (ln_flx     =T)
!!   namsbc_blk      Bulk formulae formulation                          (ln_blk     =T)
!!   namsbc_cpl      CouPLed            formulation                     ("key_oasis3" )
!!   namsbc_sas      Stand-Alone Surface module                         (SAS_SRC  only)
!!   namsbc_iif      Ice-IF: use observed ice cover                     (nn_ice = 1   )
!!   namtra_qsr      penetrative solar radiation                        (ln_traqsr  =T)
!!   namsbc_ssr      sea surface restoring term (for T and/or S)        (ln_ssr     =T)
!!   namsbc_rnf      river runoffs                                      (ln_rnf     =T)
!!   namsbc_apr      Atmospheric Pressure                               (ln_apr_dyn =T)
!!   namsbc_isf      ice shelf melting/freezing                         (ln_isfcav  =T : read (ln_read_cfg=T) or set or usr_def_zgr )
!!   namsbc_iscpl    coupling option between land ice model and ocean   (ln_isfcav  =T)
!!   namsbc_wave     external fields from wave model                    (ln_wave    =T)
!!   namberg         iceberg floats                                     (ln_icebergs=T)
!!======================================================================
!
!-----------------------------------------------------------------------
&namsbc        !   Surface Boundary Condition manager                   (default: NO selection)
!-----------------------------------------------------------------------
   nn_fsbc     = 1         !  frequency of SBC module call
      !                    !  (control sea-ice & iceberg model call)
                     ! Type of air-sea fluxes 
   ln_usr      = .false.   !  user defined formulation                  (T => check usrdef_sbc)
   ln_flx      = .false.   !  flux formulation                          (T => fill namsbc_flx )
   ln_blk      = .true.    !  Bulk formulation                          (T => fill namsbc_blk )
      !              ! Type of coupling (Ocean/Ice/Atmosphere) :
   ln_cpl      = .false.   !  atmosphere coupled   formulation          ( requires key_oasis3 )
   ln_mixcpl   = .false.   !  forced-coupled mixed formulation          ( requires key_oasis3 )
   nn_components = 0       !  configuration of the opa-sas OASIS coupling
      !                    !  =0 no opa-sas OASIS coupling: default single executable config.
      !                    !  =1 opa-sas OASIS coupling: multi executable config., OPA component
      !                    !  =2 opa-sas OASIS coupling: multi executable config., SAS component 
                     ! Sea-ice :
   nn_ice      = 2         !  =0 no ice boundary condition    
      !                    !  =1 use observed ice-cover                 (  => fill namsbc_iif )
      !                    !  =2 or 3 automatically for SI3 or CICE    ("key_si3" or "key_cice")
      !                    !          except in AGRIF zoom where it has to be specified
   ln_ice_embd = .false.   !  =T embedded sea-ice (pressure + mass and salt exchanges)
      !                    !  =F levitating ice (no pressure, mass and salt exchanges)
                     ! Misc. options of sbc : 
   ln_traqsr   = .true.    !  Light penetration in the ocean            (T => fill namtra_qsr)
   ln_dm2dc    = .false.   !  daily mean to diurnal cycle on short wave
   ln_ssr      = .true.    !  Sea Surface Restoring on T and/or S       (T => fill namsbc_ssr)
   nn_fwb      = 0         !  FreshWater Budget: =0 unchecked
      !                    !     =1 global mean of e-p-r set to zero at each time step
      !                    !     =2 annual global mean of e-p-r set to zero
   ln_rnf      = .true.    !  runoffs                                   (T => fill namsbc_rnf)
   ln_apr_dyn  = .false.   !  Patm gradient added in ocean & ice Eqs.   (T => fill namsbc_apr )
   ln_isf      = .false.   !  ice shelf                                 (T   => fill namsbc_isf & namsbc_iscpl)
   ln_wave     = .false.   !  Activate coupling with wave  (T => fill namsbc_wave)
   ln_cdgw     = .false.   !  Neutral drag coefficient read from wave model (T => ln_wave=.true. & fill namsbc_wave)
   ln_sdw      = .false.   !  Read 2D Surf Stokes Drift & Computation of 3D stokes drift (T => ln_wave=.true. & fill namsbc_wave) 
   nn_sdrift   =  0        !  Parameterization for the calculation of 3D-Stokes drift from the surface Stokes drift
      !                    !   = 0 Breivik 2015 parameterization: v_z=v_0*[exp(2*k*z)/(1-8*k*z)]
      !                    !   = 1 Phillips:                      v_z=v_o*[exp(2*k*z)-beta*sqrt(-2*k*pi*z)*erfc(sqrt(-2*k*z))]
      !                    !   = 2 Phillips as (1) but using the wave frequency from a wave model
   ln_tauwoc   = .false.   !  Activate ocean stress modified by external wave induced stress (T => ln_wave=.true. & fill namsbc_wave)
   ln_tauw     = .false.   !  Activate ocean stress components from wave model
   ln_stcor    = .false.   !  Activate Stokes Coriolis term (T => ln_wave=.true. & ln_sdw=.true. & fill namsbc_wave)
   nn_lsm      = 0         !  =0 land/sea mask for input fields is not applied (keep empty land/sea mask filename field) ,
                           !  =1:n number of iterations of land/sea mask application for input fields (fill land/sea mask filename field)
/
!-----------------------------------------------------------------------
&namsbc_blk    !   namsbc_blk  generic Bulk formula                     (ln_blk =T)
!-----------------------------------------------------------------------
   !                    !  bulk algorithm :
   ln_NCAR      = .true.    ! "NCAR"      algorithm   (Large and Yeager 2008)
   ln_COARE_3p0 = .false.   ! "COARE 3.0" algorithm   (Fairall et al. 2003)
   ln_COARE_3p5 = .false.   ! "COARE 3.5" algorithm   (Edson et al. 2013)
   ln_ECMWF     = .false.   ! "ECMWF"     algorithm   (IFS cycle 31)
      !
      rn_zqt      =  2.       !  Air temperature & humidity reference height (m)
      rn_zu       = 10.       !  Wind vector reference height (m)
      ln_Cd_L12   = .false.   !  air-ice drags = F(ice concentration) (Lupkes et al. 2012)
      ln_Cd_L15   = .true.    !  air-ice drags = F(ice concentration) (Lupkes et al. 2015)
      ln_taudif   = .false.   !  HF tau contribution: use "mean of stress module - module of the mean stress" data
      rn_pfac     = 1.        !  multiplicative factor for precipitation (total & snow)
      rn_efac     = 1.        !  multiplicative factor for evaporation (0. or 1.)
      rn_vfac     = 0.        !  multiplicative factor for ocean & ice velocity used to
      !                       !  calculate the wind stress (0.=absolute or 1.=relative winds)

   cn_dir      = './'      !  root directory for the bulk data location
   !___________!_________________________!___________________!___________!_____________!________!___________!______________________________________!__________!_______________!
   !           !  file name              ! frequency (hours) ! variable  ! time interp.!  clim  ! 'yearly'/ !       weights filename               ! rotation ! land/sea mask !
   !           !                         !  (if <0  months)  !   name    !   (logical) !  (T/F) ! 'monthly' !                                      ! pairing  !    filename   !
   sn_wndi     = 'ERA5_u10_drwnd'        ,         1         , 'u10'     ,   .false.   , .false., 'yearly'  , 'reshape_ERA5_SEDNA_Tgt_bicub_20210823.nc' , 'Uwnd'   , ''
   sn_wndj     = 'ERA5_v10_drwnd'        ,         1         , 'v10'     ,   .false.   , .false., 'yearly'  , 'reshape_ERA5_SEDNA_Tgt_bicub_20210823.nc' , 'Vwnd'   , ''
   sn_qsr      = 'ERA5_msdwswrf_drwnd'   ,         1         , 'msdwswrf',   .false.   , .false., 'yearly'  , 'reshape_ERA5_SEDNA_Tgt_bilin_20210823.nc' , ''       , ''
   sn_qlw      = 'ERA5_msdwlwrf_drwnd'   ,         1         , 'msdwlwrf',   .false.   , .false., 'yearly'  , 'reshape_ERA5_SEDNA_Tgt_bilin_20210823.nc' , ''       , ''
   sn_tair     = 'ERA5_t2m_drwnd'        ,         1         , 't2m'     ,   .false.   , .false., 'yearly'  , 'reshape_ERA5_SEDNA_Tgt_bilin_20210823.nc' , ''       , ''
   sn_humi     = 'ERA5_q2m_drwnd'        ,         1         , 'q2m'     ,   .false.   , .false., 'yearly'  , 'reshape_ERA5_SEDNA_Tgt_bilin_20210823.nc' , ''       , ''
   sn_prec     = 'ERA5_mtpr_drwnd'       ,         1         , 'mtpr'    ,   .false.   , .false., 'yearly'  , 'reshape_ERA5_SEDNA_Tgt_bilin_20210823.nc' , ''       , ''
   sn_snow     = 'ERA5_msr_drwnd'        ,         1         , 'msr'     ,   .false.   , .false., 'yearly'  , 'reshape_ERA5_SEDNA_Tgt_bilin_20210823.nc' , ''       , ''
   sn_slp      = 'ERA5_msl_drwnd'        ,         1         , 'msl'     ,   .false.   , .false., 'yearly'  , 'reshape_ERA5_SEDNA_Tgt_bilin_20210823.nc' , ''       , ''
   sn_tdif     = ''                      ,        -1         , ''        ,   .false.   , .false., 'yearly'  , '' , ''       , ''
/
!-----------------------------------------------------------------------
&namtra_qsr    !   penetrative solar radiation                          (ln_traqsr =T)
!-----------------------------------------------------------------------
   !                       !  type of penetration                        (default: NO selection)
   ln_qsr_rgb  = .false.   !  RGB light penetration (Red-Green-Blue)
   ln_qsr_2bd  = .true.    !  2BD light penetration (two bands)
   ln_qsr_bio  = .false.   !  bio-model light penetration
   !                       !  RGB & 2BD choices:
   rn_abs      =   0.58       !  RGB & 2BD: fraction absorbed in the very near surface
   rn_si0      =   0.35       !  RGB & 2BD: shortess depth of extinction
   nn_chldta   =      0       !  RGB : Chl data (=1) or cst value (=0)
   rn_si1      =   23.0       !  2BD : longest depth of extinction
   
   cn_dir      = './'      !  root directory for the chlorophyl data location
   !___________!_________________________!___________________!___________!_____________!________!___________!__________!__________!_______________!
   !           !  file name              ! frequency (hours) ! variable  ! time interp.!  clim  ! 'yearly'/ ! weights  ! rotation ! land/sea mask !
   !           !                         !  (if <0  months)  !   name    !   (logical) !  (T/F) ! 'monthly' ! filename ! pairing  !    filename   !
   sn_chl      = ''                      ,         -1        , 'CHLA'    ,   .true.    , .true. , 'yearly'  , ''       , ''       , ''
/
!-----------------------------------------------------------------------
&namsbc_ssr    !   surface boundary condition : sea surface restoring   (ln_ssr =T)
!-----------------------------------------------------------------------
   nn_sstr     =     0     !  add a retroaction term to the surface heat flux (=1) or not (=0)
      rn_dqdt     = -40.      !  magnitude of the retroaction on temperature   [W/m2/K]
   nn_sssr     =     2     !  add a damping term to the surface freshwater flux (=2)
      !                    !  or to SSS only (=1) or no damping term (=0)
      rn_deds     =  -166.67  !  magnitude of the damping on salinity   [mm/day]
      ln_sssr_bnd =  .true.   !  flag to bound erp term (associated with nn_sssr=2)
      rn_sssr_bnd =   4.e0    !  ABS(Max/Min) value of the damping erp term [mm/day]
      nn_sssr_ice =   0       ! control of sea surface restoring under sea-ice
                              ! 0 = no restoration under ice : * (1-icefrac)
                              ! 1 = restoration everywhere
                              ! >1 = enhanced restoration under ice : 1+(nn_icedmp-1)*icefrac
   cn_dir      = './'      !  root directory for the SST/SSS data location
   !___________!_________________________!___________________!___________!_____________!________!___________!__________________!__________!_______________!
   !           !  file name              ! frequency (hours) ! variable  ! time interp.!  clim  ! 'yearly'/ ! weights filename ! rotation ! land/sea mask !
   !           !                         !  (if <0  months)  !   name    !   (logical) !  (T/F) ! 'monthly' !                  ! pairing  !    filename   !
   sn_sst      = 'woa09_sst01-12_monthly_1deg_t_an_CMA_drowned' ,        -12   ,  't_an'    ,    .true.    , .true. , 'yearly'  , 'SST_reshape_WOA09_GLO1x1toSEDNA_bilin_20210824.nc'    , ''       , '' 
   sn_sss      = 'woa09_sss01-12_monthly_1deg_s_an_CMA_drowned' ,        -12   ,  's_an'    ,    .true.    , .true. , 'yearly'  , 'SSS_reshape_WOA09_GLO1x1toSEDNA_bilin_20210824.nc'    , ''       , ''
   sn_coast    = 'SEDNA_dist.coast_20210823_tsh10m_L1'                   ,         0    , 'Tcoast'   ,    .false.   , .true. , 'yearly'  , ''                                                , ''       , ''
   ln_sssr_flt = .true.    ! use filtering of SSS model for sss restoring
   nn_shap_iter   =  50    ! number of iteration of the shapiro filter
   ln_sssr_msk = .true.   ! use a mask near the coast
   rn_dist    =  150.      ! distance to the coast
   ln_sssr_ice = .false.   ! Apply SSS restoring under sea-ice CAUTION, it overrights the nn_sssr_ice parameter
/
!-----------------------------------------------------------------------
&namsbc_rnf    !   runoffs                                              (ln_rnf =T)
!-----------------------------------------------------------------------
   ln_rnf_mouth  = .true.     !  specific treatment at rivers mouths
      rn_hrnf    =  50.e0     !  depth over which enhanced vertical mixing is used    (ln_rnf_mouth=T)
      rn_avt_rnf =   1.e-3    !  value of the additional vertical mixing coef. [m2/s] (ln_rnf_mouth=T)
   rn_rfact      =   1.e0     !  multiplicative factor for runoff
   ln_rnf_depth  = .false.    !  read in depth information for runoff
   ln_rnf_tem    = .false.    !  read in temperature information for runoff
   ln_rnf_sal    = .false.    !  read in salinity information for runoff
   ln_rnf_depth_ini = .false. ! compute depth at initialisation from runoff file
      rn_rnf_max  = 5.735e-4  !  max value of the runoff climatologie over global domain ( ln_rnf_depth_ini = .true )
      rn_dep_max  = 150.      !  depth over which runoffs is spread ( ln_rnf_depth_ini = .true )
      nn_rnf_depth_file = 0   !  create (=1) a runoff depth file or not (=0)
   ln_rnf_icb  = .false.   !  read in iceberg flux from a file (fill sn_i_rnf if .true.)

   cn_dir      = './'      !  root directory for the runoff data location
   !___________!____________________!___________________!___________!_____________!________!___________!__________________!__________!_______________!
   !           !  file name         ! frequency (hours) ! variable  ! time interp.!  clim  ! 'yearly'/ ! weights filename ! rotation ! land/sea mask !
   !           !                    !  (if <0  months)  !   name    !   (logical) !  (T/F) ! 'monthly' !                  ! pairing  !    filename   !

   sn_rnf      = 'SEDNA_runoff_monthly_combined_Dai_Trenberth_Bamber_Z' , -1      , 'runoff'  , .true.      , .false. , 'yearly'  , ''       , '' , ''
   sn_cnf      = 'SEDNA_runoff_monthly_combined_Dai_Trenberth_Bamber_Z' ,  1      , 'socoefr' , .false.     , .false. , 'yearly'  , ''       , '' , ''
   sn_s_rnf    = ' '            ,        24        , 'rosaline',   .true.     , .true. , 'yearly'  , ''       , '' , ''
   sn_t_rnf    = ' '            ,        24        , 'rotemper',   .true.     , .true. , 'yearly'  , ''       , '' , ''
   sn_dep_rnf  = ' '            ,         0        , 'rodepth' ,   .false.    , .true. , 'yearly'  , ''       , '' , ''
/

!!======================================================================
!!               ***  Lateral boundary condition  ***                 !!
!!                                                                    !!
!!   namlbc        lateral momentum boundary condition                  (default: NO selection)
!!   namagrif      agrif nested grid   (read by child model only)       ("key_agrif")
!!   nam_tide      Tidal forcing                                        (default: OFF)
!!   nambdy        Unstructured open boundaries                         (default: OFF)
!!   nambdy_dta    Unstructured open boundaries - external data         (see  nambdy)
!!   nambdy_tide   tidal forcing at open boundaries                     (default: OFF)
!!======================================================================
!
!-----------------------------------------------------------------------
&namlbc        !   lateral momentum boundary condition                  (default: NO selection)
!-----------------------------------------------------------------------
   !                       !  free slip  !   partial slip  !   no slip   ! strong slip
   rn_shlat    =    2.     !  shlat = 0  !  0 < shlat < 2  !  shlat = 2  !  2 < shlat
   ln_vorlat   = .false.   !  consistency of vorticity boundary condition with analytical Eqs.
/
!-----------------------------------------------------------------------
&namagrif      !  AGRIF zoom                                            ("key_agrif")
!-----------------------------------------------------------------------
   ln_spc_dyn    = .true.  !  use 0 as special value for dynamics
   rn_sponge_tra = 2880.   !  coefficient for tracer   sponge layer [m2/s]
   rn_sponge_dyn = 2880.   !  coefficient for dynamics sponge layer [m2/s]
   ln_chk_bathy  = .false. !  =T  check the parent bathymetry
/
!-----------------------------------------------------------------------
&nam_tide      !   tide parameters                                      (default: OFF)
!-----------------------------------------------------------------------
   ln_tide     = .false.      ! Activate tides
      ln_tide_pot   = .false.                !  use tidal potential forcing
         ln_scal_load  = .false.               ! Use scalar approximation for
            rn_scal_load = 0.094               !     load potential
         ln_read_load  = .false.               ! Or read load potential from file
            cn_tide_load = 'tide_LOAD_grid_T.nc'  ! filename for load potential
            !      
      ln_tide_ramp  = .false.               !  Use linear ramp for tides at startup
         rdttideramp   =    0.                 !  ramp duration in days
      clname(1)     = 'DUMMY'               !  name of constituent - all tidal components must be set in namelist_cfg
/
!-----------------------------------------------------------------------
&nambdy        !  unstructured open boundaries                          (default: OFF)
!-----------------------------------------------------------------------
   ln_bdy         = .true.    !  Use unstructured open boundaries
   nb_bdy         = 3         !  number of open boundary sets
   ln_coords_file = .false.,.false.,.false.   !  =T : read bdy coordinates from file
      cn_coords_file = '',''          !  bdy coordinates files
   ln_mask_file   = .false.   !  =T : read mask from file
      cn_mask_file = ''        !  name of mask file (if ln_mask_file=.TRUE.)
   cn_dyn2d    = 'flather','flather','flather' 
   nn_dyn2d_dta   = 1,1,1     !  = 0, bdy data are equal to the initial state
      !                       !  = 1, bdy data are read in 'bdydata   .nc' files
      !                       !  = 2, use tidal harmonic forcing data from files
      !                       !  = 3, use external data AND tidal harmonic forcing
   cn_dyn3d      =  'frs','frs','frs' !
   nn_dyn3d_dta  =  1,1,1     !  = 0, bdy data are equal to the initial state
   !                          !  = 1, bdy data are read in 'bdydata   .nc' files
   cn_tra        =  'frs','frs','frs' !
   nn_tra_dta    =  1,1,1     !  = 0, bdy data are equal to the initial state
   !                          !  = 1, bdy data are read in 'bdydata   .nc' files
   cn_ice        =  'none','frs','none' !
   nn_ice_dta    =  0,1,0     !  = 0, bdy data are equal to the initial state
   !                          !  = 1, bdy data are read in 'bdydata   .nc' files
   !
   ln_tra_dmp    =.false.,.false.,.false.     !  open boudaries conditions for tracers
   ln_dyn3d_dmp  =.false.,.false.,.false.     !  open boundary condition for baroclinic velocities
   rn_time_dmp   =  1.,1.,1.  !  Damping time scale in days
   rn_time_dmp_out = 10.,10.,10.  !  Outflow damping time scale
   nn_rimwidth   = 10,10,10   !  width of the relaxation zone